models/_old/AVRI/PSSE_Files/AVRI_Base_Case.raw
0,   100.00, 33, 0, 1, 60.00     / PSS(R)E-33.4    WED, FEB 24 2021  17:48


     1,'B1          ', 400.0000,3,   1,   1,   1,1.05000,   0.0000,1.10000,0.90000,1.10000,0.90000
     2,'B2          ', 400.0000,1,   1,   1,   1,1.03824,  -2.6288,1.10000,0.90000,1.10000,0.90000
     3,'B3          ', 400.0000,1,   1,   1,   1,1.02871,  -5.3121,1.10000,0.90000,1.10000,0.90000
     4,'B4          ', 400.0000,1,   1,   1,   1,1.01659, -10.7992,1.10000,0.90000,1.10000,0.90000
     5,'B5          ', 400.0000,1,   1,   1,   1,1.02144, -10.0768,1.10000,0.90000,1.10000,0.90000
     6,'B6          ', 400.0000,1,   1,   1,   1,1.03163,  -8.6530,1.10000,0.90000,1.10000,0.90000
     7,'B7          ', 400.0000,1,   1,   1,   1,1.03427,  -8.3015,1.10000,0.90000,1.10000,0.90000
     8,'B8          ', 400.0000,2,   1,   1,   1,1.05000,  -5.1343,1.10000,0.90000,1.10000,0.90000
     9,'B9          ', 400.0000,1,   1,   1,   1,1.01203, -13.9499,1.10000,0.90000,1.10000,0.90000
    10,'B10         ', 400.0000,1,   1,   1,   1,1.02059, -25.0908,1.10000,0.90000,1.10000,0.90000
    11,'B11         ', 400.0000,1,   1,   1,   1,1.03374, -29.4396,1.10000,0.90000,1.10000,0.90000
    12,'B12         ', 400.0000,2,   1,   1,   1,1.05000, -28.3838,1.10000,0.90000,1.10000,0.90000
    13,'B13         ', 400.0000,1,   1,   1,   1,1.01067, -16.1864,1.10000,0.90000,1.10000,0.90000
    14,'B14         ', 400.0000,1,   1,   1,   1,1.01256, -20.6604,1.10000,0.90000,1.10000,0.90000
0 / END OF BUS DATA, BEGIN LOAD DATA
    11,'1 ',1,   1,   1,   100.000,     0.000,     0.000,     0.000,     0.000,     0.000,   1,1,0
0 / END OF LOAD DATA, BEGIN FIXED SHUNT DATA
0 / END OF FIXED SHUNT DATA, BEGIN GENERATOR DATA
     1,'1 ',    50.000,    13.496,  9999.000, -9999.000,1.05000,     0,   900.000, 0.00000E+0, 1.00000E+0, 0.00000E+0, 0.00000E+0,1.00000,1,  100.0,  9999.000, -9999.000,   1,1.0000
     8,'1 ',    30.000,     9.087,  9999.000, -9999.000,1.05000,     0,   900.000, 0.00000E+0, 1.00000E+0, 0.00000E+0, 0.00000E+0,1.00000,1,  100.0,  9999.000, -9999.000,   1,1.0000
    12,'1 ',    20.000,    17.259,  9999.000, -9999.000,1.05000,     0,   900.000, 0.00000E+0, 1.00000E+0, 0.00000E+0, 0.00000E+0,1.00000,1,  100.0,  9999.000, -9999.000,   1,1.0000
0 / END OF GENERATOR DATA, BEGIN BRANCH DATA
     1,     2,'1 ', 0.00000E+0, 1.00000E-1,   0.00000,    0.00,    0.00,    0.00,  0.00000,  0.00000,  0.00000,  0.00000,1,1,   0.00,   1,1.0000
     2,     3,'1 ', 0.00000E+0, 1.00000E-1,   0.00000,    0.00,    0.00,    0.00,  0.00000,  0.00000,  0.00000,  0.00000,1,1,   0.00,   1,1.0000
     3,     4,'1 ', 0.00000E+0, 2.00000E-1,   0.00000,    0.00,    0.00,    0.00,  0.00000,  0.00000,  0.00000,  0.00000,1,1,   0.00,   1,1.0000
     4,     5,'1 ', 0.00000E+0, 2.00000E-1,   0.00000,    0.00,    0.00,    0.00,  0.00000,  0.00000,  0.00000,  0.00000,1,1,   0.00,   1,1.0000
     4,     9,'1 ', 0.00000E+0, 1.00000E-1,   0.00000,    0.00,    0.00,    0.00,  0.00000,  0.00000,  0.00000,  0.00000,1,1,   0.00,   1,1.0000
     5,     6,'1 ', 0.00000E+0, 4.00000E-1,   0.00000,    0.00,    0.00,    0.00,  0.00000,  0.00000,  0.00000,  0.00000,1,2,   0.00,   1,1.0000
     6,     7,'1 ', 0.00000E+0, 1.00000E-1,   0.00000,    0.00,    0.00,    0.00,  0.00000,  0.00000,  0.00000,  0.00000,1,1,   0.00,   1,1.0000
     7,     8,'1 ', 0.00000E+0, 2.00000E-1,   0.00000,    0.00,    0.00,    0.00,  0.00000,  0.00000,  0.00000,  0.00000,1,2,   0.00,   1,1.0000
     7,    10,'1 ', 0.00000E+0, 1.30000E+0,   0.00000,    0.00,    0.00,    0.00,  0.00000,  0.00000,  0.00000,  0.00000,1,1,   0.00,   1,1.0000
     9,    10,'1 ', 0.00000E+0, 1.20000E+0,   0.00000,    0.00,    0.00,    0.00,  0.00000,  0.00000,  0.00000,  0.00000,1,1,   0.00,   1,1.0000
     9,    13,'1 ', 0.00000E+0, 1.00000E-1,   0.00000,    0.00,    0.00,    0.00,  0.00000,  0.00000,  0.00000,  0.00000,1,1,   0.00,   1,1.0000
    10,    11,'1 ', 0.00000E+0, 1.00000E-1,   0.00000,    0.00,    0.00,    0.00,  0.00000,  0.00000,  0.00000,  0.00000,1,1,   0.00,   1,1.0000
    10,    14,'1 ', 0.00000E+0, 2.00000E-1,   0.00000,    0.00,    0.00,    0.00,  0.00000,  0.00000,  0.00000,  0.00000,1,1,   0.00,   1,1.0000
    11,    12,'1 ', 0.00000E+0, 1.00000E-1,   0.00000,    0.00,    0.00,    0.00,  0.00000,  0.00000,  0.00000,  0.00000,1,1,   0.00,   1,1.0000
    13,    14,'1 ', 0.00000E+0, 2.00000E-1,   0.00000,    0.00,    0.00,    0.00,  0.00000,  0.00000,  0.00000,  0.00000,1,1,   0.00,   1,1.0000
0 / END OF BRANCH DATA, BEGIN TRANSFORMER DATA
0 / END OF TRANSFORMER DATA, BEGIN AREA DATA
0 / END OF AREA DATA, BEGIN TWO-TERMINAL DC DATA
0 / END OF TWO-TERMINAL DC DATA, BEGIN VSC DC LINE DATA
0 / END OF VSC DC LINE DATA, BEGIN IMPEDANCE CORRECTION DATA
0 / END OF IMPEDANCE CORRECTION DATA, BEGIN MULTI-TERMINAL DC DATA
0 / END OF MULTI-TERMINAL DC DATA, BEGIN MULTI-SECTION LINE DATA
0 / END OF MULTI-SECTION LINE DATA, BEGIN ZONE DATA
0 / END OF ZONE DATA, BEGIN INTER-AREA TRANSFER DATA
0 / END OF INTER-AREA TRANSFER DATA, BEGIN OWNER DATA
0 / END OF OWNER DATA, BEGIN FACTS DEVICE DATA
0 / END OF FACTS DEVICE DATA, BEGIN SWITCHED SHUNT DATA
0 / END OF SWITCHED SHUNT DATA, BEGIN GNE DATA
0 / END OF GNE DATA, BEGIN INDUCTION MACHINE DATA
0 / END OF INDUCTION MACHINE DATA
Q
